  70   
   centered   
   C    -5.500000    -6.000000     0.000000 
   C    -5.500000    -1.740000     0.000000 
   C    -5.500000     2.520000     0.000000 
   C    -3.040000    -6.000000     0.000000 
   C    -3.040000    -1.740000     0.000000 
   C    -3.040000     2.520000     0.000000 
   C    -0.580000    -6.000000     0.000000 
   C    -0.580000    -1.740000     0.000000 
   C    -0.580000     2.520000     0.000000 
   C     1.880000    -6.000000     0.000000 
   C     1.880000    -1.740000     0.000000 
   C     1.880000     2.520000     0.000000 
   C     4.340000    -6.000000     0.000000 
   C     4.340000    -1.740000     0.000000 
   C     4.340000     2.520000     0.000000 
   C    -5.500000    -4.580000     0.000000 
   C    -5.500000    -0.320000     0.000000 
   C    -5.500000     3.940000     0.000000 
   C    -3.040000    -4.580000     0.000000 
   C    -3.040000    -0.320000     0.000000 
   C    -3.040000     3.940000     0.000000 
   C    -0.580000    -4.580000     0.000000 
   C    -0.580000    -0.320000     0.000000 
   C    -0.580000     3.940000     0.000000 
   C     1.880000    -4.580000     0.000000 
   C     1.880000    -0.320000     0.000000 
   C     1.880000     3.940000     0.000000 
   C     4.340000    -4.580000     0.000000 
   C     4.340000    -0.320000     0.000000 
   C     4.340000     3.940000     0.000000 
   C    -4.270000    -3.870000     0.000000 
   C    -4.270000     0.390000     0.000000 
   C    -4.270000     4.650000     0.000000 
   C    -1.810000    -3.870000     0.000000 
   C    -1.810000     0.390000     0.000000 
   C    -1.810000     4.650000     0.000000 
   C     0.650000    -3.870000     0.000000 
   C     0.650000     0.390000     0.000000 
   C     0.650000     4.650000     0.000000 
   C     3.110000    -3.870000     0.000000 
   C     3.110000     0.390000     0.000000 
   C     3.110000     4.650000     0.000000 
   C     5.570000    -3.870000     0.000000 
   C     5.570000     0.390000     0.000000 
   C     5.570000     4.650000     0.000000 
   C    -4.270000    -2.450000     0.000000 
   C    -4.270000     1.810000     0.000000 
   C    -4.270000     6.070000     0.000000 
   C    -1.810000    -2.450000     0.000000 
   C    -1.810000     1.810000     0.000000 
   C    -1.810000     6.070000     0.000000 
   C     0.650000    -2.450000     0.000000 
   C     0.650000     1.810000     0.000000 
   C     0.650000     6.070000     0.000000 
   C     3.110000    -2.450000     0.000000 
   C     3.110000     1.810000     0.000000 
   C     3.110000     6.070000     0.000000 
   C     5.570000    -2.450000     0.000000 
   C     5.570000     1.810000     0.000000 
   C     5.570000     6.070000     0.000000 
   H    -0.540004     0.079000     4.498752 
   H     1.270383     1.790081     2.404571 
   O    -0.843352    -0.858971     4.453349 
   O    -1.666277     0.084159     2.553554 
   O    -1.906103    -2.067102     2.898884 
   O     1.579573     1.334488     3.221512 
   O     3.365162     1.997014     1.921870 
   O     3.731774     1.029341     3.895930 
   N    -1.541219    -0.961212     3.163117 
   N     3.050064     1.473202     2.988460
